/*--------------------------------*- C++ -*----------------------------------*\
  =========                 |
  \\      /  F ield         | OpenFOAM: The Open Source CFD Toolbox
   \\    /   O peration     | Website:  https://openfoam.org
    \\  /    A nd           | Version:  9
     \\/     M anipulation  |
\*---------------------------------------------------------------------------*/
FoamFile
{
    format      ascii;
    class       dictionary;
    location    "system";
    object      controlDict;
}
// * * * * * * * * * * * * * * * * * * * * * * * * * * * * * * * * * * * * * //

WTT $writeIntervalThermal;

application     chtMultiRegionFoam;

startFrom       startTime;

startTime       0;

stopAt          endTime;

endTime         $endTThermal;

deltaT          #calc "$WTT * 0.5";

writeControl    runTime;

writeInterval   $writeIntervalThermal;

purgeWrite      0;

writeFormat     ascii;

writePrecision  12;

writeCompression off;

timeFormat      general;

timePrecision   6;

maxCo  0.1;

adjustTimeStep yes;

runTimeModifiable true;


// ************************************************************************* //
