/*--------------------------------*- C++ -*----------------------------------*\
  =========                 |
  \\      /  F ield         | OpenFOAM: The Open Source CFD Toolbox
   \\    /   O peration     | Website:  https://openfoam.org
    \\  /    A nd           | Version:  9
     \\/     M anipulation  |
\*---------------------------------------------------------------------------*/
FoamFile
{
    format      ascii;
    class       volScalarField;
    object      p;
}
// * * * * * * * * * * * * * * * * * * * * * * * * * * * * * * * * * * * * * //

dimensions      [1 -1 -2 0 0 0 0];
refPres $caseOutletp;

internalField   uniform $refPres;


boundaryField
{
    //- Set patchGroups for constraint patches
    #includeEtc "caseDicts/setConstraintTypes"

    fluidInlet
    {
        type            calculated;
        value           $internalField;
    }

    fluidOutlet
    {
        type            calculated;
        value           $internalField;
    }

    cylExtSurf
    {
        type            calculated;
        value           $internalField;
    }

    Channels_to_Catalyst
    {
        type            calculated;
        value           $internalField;
    }

    inletCatalystFluidWall_to_inletCatalyst
    {
        type            calculated;
        value           $internalField;
    }
    outletCatalystFluidWall_to_outletCatalyst
    {
        type            calculated;
        value           $internalField;
    }

    y0symsurf
    {
        type            symmetry;
    }

    x0symsurf
    {
        type            symmetry;
    }
}

// ************************************************************************* //
