/*--------------------------------*- C++ -*----------------------------------*\
  =========                 |
  \\      /  F ield         | OpenFOAM: The Open Source CFD Toolbox
   \\    /   O peration     | Website:  https://openfoam.org
    \\  /    A nd           | Version:  9
     \\/     M anipulation  |
\*---------------------------------------------------------------------------*/
FoamFile
{
    format      ascii;
    class       extendedFeatureEdgeMesh;
    location    "constant/extendedFeatureEdgeMesh";
    object      SolidInlet.extendedFeatureEdgeMesh;
}
// * * * * * * * * * * * * * * * * * * * * * * * * * * * * * * * * * * * * * //

// points

10056
(
(4.9888792038 3.41886496544 -50)
(4.99383878708 3.4134850502 -50)
(5.16025400162 -5.55709695816 -50)
(5.16600704193 -5.56161880493 -50)
(1.45053899288 2.3030359745 -50)
(1.45150494576 2.31029009819 -50)
(4.91327190399 -5.30856800079 -50)
(4.91778707504 -5.31432676315 -50)
(-1.53101098537 9.88210487366 -50)
(-1.48159599304 9.88963508606 -50)
(-1.67942798138 8.45032978058 -50)
(-1.68602097034 8.4535036087 -50)
(-1.69263005257 8.45664405823 -50)
(-1.69925403595 8.45975112915 -50)
(-1.70589399338 8.46282577515 -50)
(5.07675600052 3.33087801933 -50)
(5.08215379715 3.32593894005 -50)
(1.42697405815 2.17349791527 -50)
(1.42858803272 2.18063497543 -50)
(5.17178201675 -5.5661110878 -50)
(4.97834014893 -8.67272377014 -50)
(4.93492698669 -8.69749927521 -50)
(4.98394584656 3.42426896095 -50)
(3.90462708473 -9.20618724823 -50)
(3.85856103897 -9.2255897522 -50)
(4.90878677368 -5.30278682709 -50)
(1.45243501663 2.3175470829 -50)
(5.08757686615 3.32102704048 -50)
(5.17758083344 -5.57057380676 -50)
(1.42532396317 2.16636991501 -50)
(4.97904109955 3.42969799042 -50)
(1.45332896709 2.32481002808 -50)
(4.90433120728 -5.2969827652 -50)
(5.18340110779 -5.57500886917 -50)
(5.09302377701 3.31614089012 -50)
(3.81239795685 -9.24476146698 -50)
(4.89990377426 -5.2911567688 -50)
(1.42363798618 2.15924906731 -50)
(4.97416210175 3.43515205383 -50)
(1.45418703556 2.33207607269 -50)
(5.02162885666 -8.64773082733 -50)
(5.18924379349 -5.57941389084 -50)
(3.76613998413 -9.26370239258 -50)
(4.89550590515 -5.28530883789 -50)
(5.09849596024 3.31128311157 -50)
(1.42191696167 2.15213799477 -50)
(-3.35595393181 -8.16478252411 -50)
(-3.35078406334 -8.16996097565 -50)
(4.96931123734 3.44062995911 -50)
(1.45500802994 2.33934688568 -50)
(5.19510793686 -5.58378982544 -50)
(-3.34558701515 -8.17511177063 -50)
(4.89113712311 -5.27943897247 -50)
(-3.36109900475 -8.15958023071 -50)
(5.10399198532 3.30645298958 -50)
(1.42016100883 2.14503407478 -50)
(-4.01936292648 -9.15667629242 -50)
(-4.06508302689 -9.13647079468 -50)
(-3.34036493301 -8.18023681641 -50)
(-3.36621809006 -8.15435218811 -50)
(4.96448802948 3.44613194466 -50)
(5.06479215622 -8.62252140045 -50)
(5.20099401474 -5.58813714981 -50)
(1.45579302311 2.3466219902 -50)
(3.71978807449 -9.28241252899 -50)
(-3.9735429287 -9.17665290833 -50)
(-3.33511710167 -8.18533611298 -50)
(-3.37130999565 -8.14909744263 -50)
(5.10951185226 3.3016500473 -50)
(1.41836905479 2.13793992996 -50)
(-3.32984399796 -8.19040870667 -50)
(4.95969200134 3.45165801048 -50)
(-3.37637710571 -8.14381790161 -50)
(4.88679790497 -5.27354812622 -50)
(5.20690202713 -5.5924539566 -50)
(4.8824877739 -5.26763391495 -50)
(1.45654094219 2.35390090942 -50)
(-3.32454490662 -8.19545555115 -50)
(-3.38141703606 -8.13851356506 -50)
(5.11505699158 3.296875 -50)
(1.41654098034 2.13085508347 -50)
(-4.11070108414 -9.11603736877 -50)
(-3.31922197342 -8.20047569275 -50)
(5.21283102036 -5.59674215317 -50)
(-3.3864300251 -8.13318252563 -50)
(3.67334294319 -9.30088996887 -50)
(4.95492315292 3.45720791817 -50)
(1.45725297928 2.36118292809 -50)
(-3.9276239872 -9.19639968872 -50)
(-3.3138730526 -8.2054681778 -50)
(-3.39141607285 -8.12782859802 -50)
(5.1206240654 3.292126894 -50)
(4.8782081604 -5.26170015335 -50)
(1.41467797756 2.12377905846 -50)
(5.10782909393 -8.59709739685 -50)
(5.21878194809 -5.60099887848 -50)
(-3.30849909782 -8.21043491364 -50)
(-3.39637589455 -8.1224489212 -50)
(4.95018196106 3.46278190613 -50)
(1.45792901516 2.36846899986 -50)
(-3.30310106277 -8.21537399292 -50)
(4.87395811081 -5.25574398041 -50)
(-3.40130901337 -8.1170425415 -50)
(5.12621593475 3.28740692139 -50)
(1.41278004646 2.11671209335 -50)
(5.22475385666 -5.60522699356 -50)
(3.62680697441 -9.31913471222 -50)
(-3.29767799377 -8.22028636932 -50)
(-3.40621399879 -8.11161518097 -50)
(4.94546985626 3.46837902069 -50)
(1.45856797695 2.37575793266 -50)
(-4.15621709824 -9.09537601471 -50)
(-3.29223108292 -8.22517204285 -50)
(4.86973714828 -5.24976682663 -50)
(5.15073776245 -8.57145881653 -50)
(5.13183116913 3.28271603584 -50)
(-3.4110929966 -8.10616111755 -50)
(5.2307472229 -5.60942602158 -50)
(4.8655462265 -5.24376821518 -50)
(1.41084694862 2.10965490341 -50)
(4.94078493118 3.47399997711 -50)
(-3.28675889969 -8.23003005981 -50)
(-3.88160610199 -9.21591758728 -50)
(-3.41594409943 -8.10068321228 -50)
(1.45917105675 2.38305091858 -50)
(5.23676109314 -5.61359405518 -50)
(-3.28126311302 -8.23486042023 -50)
(5.13746881485 3.2780520916 -50)
(3.58017897606 -9.33714675903 -50)
(-3.42076706886 -8.09518146515 -50)
(1.40887796879 2.10260796547 -50)
(4.93612909317 3.47964406013 -50)
(-3.27574300766 -8.23966312408 -50)
(-3.42556405067 -8.08965492249 -50)
(4.8613858223 -5.23775005341 -50)
(1.45973694324 2.39034605026 -50)
(5.24279499054 -5.61773204803 -50)
(3.53346300125 -9.35492610931 -50)
(4.85725498199 -5.23170900345 -50)
(5.14313077927 3.273416996 -50)
(-4.20162820816 -9.07448768616 -50)
(-3.27019906044 -8.24443912506 -50)
(-3.43033194542 -8.08410453796 -50)
(1.40687394142 2.09557104111 -50)
(4.93149995804 3.48531198502 -50)
(-3.26463103294 -8.24918746948 -50)
(-3.835490942 -9.23520469666 -50)
(-3.43507194519 -8.07853126526 -50)
(5.19351816177 -8.54560565948 -50)
(1.46026694775 2.39764404297 -50)
(5.24885082245 -5.62184000015 -50)
(5.1488161087 3.2688100338 -50)
(-3.25903892517 -8.25390625 -50)
(1.40483498573 2.08854293823 -50)
(-3.43978500366 -8.0729341507 -50)
(4.85315513611 -5.22564888 -50)
(-3.25342392921 -8.25859737396 -50)
(5.25492620468 -5.62591695786 -50)
(4.92689990997 3.49100208282 -50)
(3.48665690422 -9.37247180939 -50)
(-3.44446992874 -8.06731319427 -50)
(1.46076095104 2.40494394302 -50)
(5.15452289581 3.26423096657 -50)
(1.40276098251 2.08152604103 -50)
(-3.24778604507 -8.26326084137 -50)
(-3.44912600517 -8.06166934967 -50)
(4.84908485413 -5.21956777573 -50)
(4.92232894897 3.49671602249 -50)
(5.26102304459 -5.62996387482 -50)
(5.23616886139 -8.51953887939 -50)
(4.8450460434 -5.21346712112 -50)
(-4.24693489075 -9.05337142944 -50)
(-3.24212408066 -8.26789665222 -50)
(-3.45375490189 -8.05600166321 -50)
(1.46121799946 2.41224694252 -50)
(5.16025400162 3.2596809864 -50)
(-3.23643898964 -8.27250385284 -50)
(1.40065097809 2.07452011108 -50)
(-3.78928089142 -9.25426101685 -50)
(-3.45835399628 -8.05031108856 -50)
(4.91778707504 3.50245189667 -50)
(5.2671380043 -5.63398122787 -50)
(3.4397649765 -9.38978290558 -50)
(-3.23073196411 -8.27708244324 -50)
(1.46163797379 2.41955208778 -50)
(-3.46292591095 -8.04459762573 -50)
(5.16600704193 3.25516009331 -50)
(1.39850699902 2.0675239563 -50)
(4.8410358429 -5.20734596252 -50)
(-3.22500109673 -8.28163146973 -50)
(5.27327489853 -5.63796710968 -50)
(-3.46746897697 -8.03886127472 -50)
(3.39278697968 -9.40685939789 -50)
(4.91327190399 3.50821089745 -50)
(-4.29213619232 -9.03203010559 -50)
(-3.21924805641 -8.28615283966 -50)
(1.46202194691 2.42685890198 -50)
(-3.47198200226 -8.0331029892 -50)
(5.17178201675 3.25066804886 -50)
(1.39632797241 2.06053900719 -50)
(4.83705806732 -5.20120477676 -50)
(5.27943086624 -5.64192199707 -50)
(5.27868795395 -8.49325847626 -50)
(-3.2134718895 -8.29064559937 -50)
(-3.47646808624 -8.02732086182 -50)
(4.90878677368 3.51399207115 -50)
(4.83311080933 -5.19504404068 -50)
(1.46236896515 2.43416810036 -50)
(-3.20767402649 -8.29510879517 -50)
(-3.74297595024 -9.27308654785 -50)
(-3.48092389107 -8.0215177536 -50)
(5.17758083344 3.24620389938 -50)
(1.39411401749 2.05356502533 -50)
(5.28560590744 -5.64584589005 -50)
(3.34572410583 -9.42370033264 -50)
(-3.20185399055 -8.29954338074 -50)
(4.90433120728 3.51979589462 -50)
(-3.48535108566 -8.0156917572 -50)
(1.46267998219 2.44147801399 -50)
(4.82919406891 -5.1888628006 -50)
(-3.19601106644 -8.3039484024 -50)
(5.2918009758 -5.64974021912 -50)
(-3.48974895477 -8.00984382629 -50)
(5.18340110779 3.24177002907 -50)
(1.39186501503 2.04660201073 -50)
(4.89990377426 3.52562189102 -50)
(-4.33722877502 -9.01046276093 -50)
(-3.19014692307 -8.30832481384 -50)
(-3.49411702156 -8.00397396088 -50)
(1.46295404434 2.44879102707 -50)
(4.82530784607 -5.18266296387 -50)
(5.32107591629 -8.4667673111 -50)
(-3.1842610836 -8.31267166138 -50)
(-3.69657707214 -9.291680336 -50)
(5.29801607132 -5.65360307693 -50)
(3.29857802391 -9.44030666351 -50)
(-3.49845695496 -7.99808216095 -50)
(5.18924379349 3.2373650074 -50)
(1.38958096504 2.03964996338 -50)
(4.89550590515 3.53147006035 -50)
(-3.17835307121 -8.31698799133 -50)
(-3.50276708603 -7.99216890335 -50)
(4.82145404816 -5.17644405365 -50)
(1.46319198608 2.45610404015 -50)
(5.30424976349 -5.65743398666 -50)
(3.25134897232 -9.45667552948 -50)
(4.81762981415 -5.17020511627 -50)
(-3.17242407799 -8.32127571106 -50)
(-3.50704693794 -7.98623418808 -50)
(5.19510793686 3.2329890728 -50)
(1.38726198673 2.03271007538 -50)
(4.89113712311 3.53733897209 -50)
(-4.38221406937 -8.98867034912 -50)
(-3.16647291183 -8.32553386688 -50)
(-3.51129698753 -7.98027801514 -50)
(5.31050300598 -5.66123390198 -50)
(5.36333084106 -8.44006347656 -50)
(1.46339297295 2.4634180069 -50)
(-3.16050100327 -8.3297624588 -50)
(5.20099401474 3.22864198685 -50)
(-3.51551795006 -7.97430086136 -50)
(1.38490903378 2.02578210831 -50)
(4.88679790497 3.54323101044 -50)
(-3.65008592606 -9.31004142761 -50)
(4.81383800507 -5.16394805908 -50)
(5.31677484512 -5.66500282288 -50)
(-3.15450811386 -8.33396053314 -50)
(-3.51970911026 -7.96830320358 -50)
(3.20403909683 -9.47281074524 -50)
(1.46355700493 2.47073292732 -50)
(5.20690202713 3.22432494164 -50)
(-3.1484940052 -8.3381280899 -50)
(-3.52386903763 -7.96228408813 -50)
(1.38252198696 2.01886510849 -50)
(4.8100771904 -5.15767097473 -50)
(4.8824877739 3.54914402962 -50)
(5.32306623459 -5.66873979568 -50)
(-4.42708921432 -8.96665382385 -50)
(-3.14245891571 -8.34226608276 -50)
(-3.52800011635 -7.95624399185 -50)
(1.46368598938 2.47804999352 -50)
(5.21283102036 3.22003698349 -50)
(1.38009905815 2.0119600296 -50)
(-3.13640403748 -8.34637546539 -50)
(-3.53209996223 -7.95018386841 -50)
(4.80634689331 -5.15137577057 -50)
(4.8782081604 3.55507898331 -50)
(3.15664792061 -9.48870754242 -50)
(5.32937479019 -5.67244577408 -50)
(5.4054517746 -8.41314983368 -50)
(-3.13032889366 -8.35045146942 -50)
(-3.5361700058 -7.94410276413 -50)
(1.46377694607 2.48536610603 -50)
(5.21878194809 3.21577906609 -50)
(-3.60350394249 -9.32816982269 -50)
(1.37764298916 2.00506806374 -50)
(-3.12423300743 -8.35449886322 -50)
(-3.54021000862 -7.93800210953 -50)
(4.80264902115 -5.14506196976 -50)
(5.33570194244 -5.67612123489 -50)
(4.87395811081 3.56103491783 -50)
(-3.11811590195 -8.35851573944 -50)
(-3.54421806335 -7.93187999725 -50)
(1.46383202076 2.49268293381 -50)
(5.22475385666 3.211550951 -50)
(1.37515199184 1.9981880188 -50)
(4.79898309708 -5.13873004913 -50)
(3.10917901993 -9.50436782837 -50)
(5.34204816818 -5.67976284027 -50)
(-4.4718542099 -8.94441318512 -50)
(-3.1119799614 -8.36250114441 -50)
(-3.54819703102 -7.92573881149 -50)
(4.86973714828 3.56701207161 -50)
(-3.10582399368 -8.36645698547 -50)
(-3.5521440506 -7.91957902908 -50)
(1.46385002136 2.5 -50)
(4.79534816742 -5.13237905502 -50)
(5.44743776321 -8.38602542877 -50)
(5.2307472229 3.20735311508 -50)
(5.34841299057 -5.68337392807 -50)
(1.372625947 1.991320014 -50)
(-3.09964799881 -8.37038135529 -50)
(-3.55683207512 -9.34606647491 -50)
(-0.863440990448 -6.96500015259 -50)
(-0.864297986031 -6.95773410797 -50)
(-3.55606102943 -7.913397789 -50)
(1.46383202076 2.50731706619 -50)
(4.8655462265 3.5730099678 -50)
(4.79174518585 -5.1260099411 -50)
(-3.09345293045 -8.37427425385 -50)
(-3.55994701385 -7.90719795227 -50)
(5.3547949791 -5.68695402145 -50)
(5.23676109314 3.20318508148 -50)
(1.37006604671 1.98446595669 -50)
(-0.865191996098 -6.95047092438 -50)
(-4.51650714874 -8.92194843292 -50)
(-3.08723902702 -8.37813663483 -50)
(-3.56380105019 -7.90097904205 -50)
(1.46377694607 2.51463389397 -50)
(4.8613858223 3.57902908325 -50)
(4.78817415237 -5.11962413788 -50)
(-3.08100509644 -8.38196754456 -50)
(5.36119413376 -5.69050121307 -50)
(-3.56762504578 -7.89474010468 -50)
(4.78463506699 -5.11322021484 -50)
(5.24279499054 3.19904708862 -50)
(-0.86612200737 -6.94321298599 -50)
(1.36747205257 1.97762405872 -50)
(-3.07475209236 -8.38576889038 -50)
(-3.57141709328 -7.88848209381 -50)
(1.46368598938 2.52195000648 -50)
(4.85725498199 3.58506894112 -50)
(-3.0684800148 -8.38953781128 -50)
(-3.5100710392 -9.36372756958 -50)
(-3.57517790794 -7.88220500946 -50)
(5.24885082245 3.19493889809 -50)
(1.36484396458 1.97079503536 -50)
(5.48928785324 -8.35869121552 -50)
(5.36761188507 -5.69401597977 -50)
(-4.56104803085 -8.89926147461 -50)
(1.46355700493 2.52926707268 -50)
(-0.867088973522 -6.93595981598 -50)
(-3.06218910217 -8.39327526093 -50)
(-3.57890796661 -7.8759098053 -50)
(4.85315513611 3.59113001823 -50)
(-3.05588006973 -8.39698123932 -50)
(-3.58260607719 -7.86959600449 -50)
(5.25492620468 3.19086098671 -50)
(4.78112697601 -5.106798172 -50)
(5.37404680252 -5.69749879837 -50)
(1.36218202114 1.96397900581 -50)
(4.7776517868 -5.10035800934 -50)
(-0.868090987206 -6.92871189117 -50)
(1.46339297295 2.5365819931 -50)
(-3.04955196381 -8.40065479279 -50)
(-3.58627200127 -7.86326408386 -50)
(4.84908485413 3.59720993042 -50)
(-3.04320597649 -8.40429782867 -50)
(5.38049888611 -5.70095014572 -50)
(5.531001091 -8.33114814758 -50)
(-3.58990693092 -7.85691404343 -50)
(5.26102304459 3.18681406975 -50)
(1.35948503017 1.95717704296 -50)
(-0.869130015373 -6.92146921158 -50)
(1.46319198608 2.54389595985 -50)
(-4.60547399521 -8.87635135651 -50)
(-3.46322202682 -9.38115596771 -50)
(-3.03684306145 -8.40790939331 -50)
(4.8450460434 3.60331201553 -50)
(-3.59350991249 -7.8505449295 -50)
(4.77420902252 -5.09390211105 -50)
(5.38696908951 -5.70436811447 -50)
(4.77079916 -5.08742809296 -50)
(-3.03045988083 -8.41148757935 -50)
(5.2671380043 3.18279790878 -50)
(1.35675501823 1.9503890276 -50)
(-0.870204985142 -6.91423082352 -50)
(-3.59708094597 -7.84415912628 -50)
(1.46295404434 2.55120897293 -50)
(4.8410358429 3.60943293571 -50)
(-3.02406001091 -8.4150352478 -50)
(-3.60062098503 -7.83775377274 -50)
(9.89511966705 -1.44450998306 -50)
(9.88777542114 -1.49395298958 -50)
(6.73203802109 -3.10400605202 -50)
(6.72551012039 -3.10070204735 -50)
(6.71896600723 -3.09742999077 -50)
(5.39345502853 -5.70775413513 -50)
(-0.871317028999 -6.90699911118 -50)
(4.76742076874 -5.08093690872 -50)
(-3.01764297485 -8.41854953766 -50)
(5.27327489853 3.17881202698 -50)
(-3.60412788391 -7.83133220673 -50)
(1.35399103165 1.94361400604 -50)
(1.46267998219 2.55852198601 -50)
(-4.64978504181 -8.85321998596 -50)
(-3.0112080574 -8.42203330994 -50)
(4.83705806732 3.61557388306 -50)
(5.57257509232 -8.30339717865 -50)
(5.39995908737 -5.7111082077 -50)
(4.76407623291 -5.07442998886 -50)
(0.683896005154 -3.79427289963 -50)
(0.690357029438 -3.79083895683 -50)
(-3.60760307312 -7.82489299774 -50)
(-3.41628694534 -9.39834976196 -50)
(5.27943086624 3.17485690117 -50)
(-3.00475597382 -8.42548370361 -50)
(-3.61104488373 -7.81843709946 -50)
(1.3511929512 1.93685305119 -50)
(1.46236896515 2.56583189964 -50)
(5.40647792816 -5.71442890167 -50)
(4.83311080933 3.62173509598 -50)
(4.76076316833 -5.06790590286 -50)
(-2.99828600883 -8.42890262604 -50)
(0.696799993515 -3.78737211227 -50)
(-3.61445593834 -7.81196308136 -50)
(5.28560590744 3.17093205452 -50)
(1.34836101532 1.93010604382 -50)
(-2.99180006981 -8.43228816986 -50)
(-3.61783409119 -7.80547189713 -50)
(1.46202194691 2.57314109802 -50)
(5.41301488876 -5.71771717072 -50)
(0.703226983547 -3.78387308121 -50)
(-2.98529601097 -8.43564224243 -50)
(4.82919406891 3.62791490555 -50)
(-3.62117910385 -7.79896497726 -50)
(5.2918009758 3.16703891754 -50)
(1.34549605846 1.92337298393 -50)
(-4.69398021698 -8.82986736298 -50)
(-2.97877597809 -8.4389629364 -50)
(-3.36926603317 -9.41530895233 -50)
(4.75748300552 -5.06136512756 -50)
(5.41956806183 -5.72097301483 -50)
(5.61400985718 -8.27543830872 -50)
(1.46163797379 2.58044791222 -50)
(-3.62449193001 -7.79243993759 -50)
(0.709635019302 -3.78034210205 -50)
(-2.97223997116 -8.44225215912 -50)
(4.82530784607 3.6341149807 -50)
(4.7542347908 -5.0548081398 -50)
(-3.62777209282 -7.78590011597 -50)
(5.29801607132 3.16317605972 -50)
(1.34259700775 1.91665494442 -50)
(-2.96568703651 -8.44550800323 -50)
(1.46121799946 2.58775305748 -50)
(5.42613697052 -5.72419595718 -50)
(-3.63102006912 -7.7793431282 -50)
(0.716026008129 -3.77677893639 -50)
(4.82145404816 3.64033508301 -50)
(-2.9591178894 -8.44873046875 -50)
(-3.63423490524 -7.7727689743 -50)
(5.30424976349 3.15934491158 -50)
(1.33966398239 1.9099509716 -50)
(4.75101995468 -5.04823493958 -50)
(5.43272209167 -5.72738599777 -50)
(0.722398996353 -3.77318406105 -50)
(-4.73805809021 -8.80629253387 -50)
(-2.95253300667 -8.45192146301 -50)
(1.46076095104 2.59505605698 -50)
(4.74783802032 -5.04164600372 -50)
(-3.63741707802 -7.76618099213 -50)
(4.81762981415 3.64657402039 -50)
(-2.94593191147 -8.455078125 -50)
(-3.32216095924 -9.43203258514 -50)
(-3.64056491852 -7.75957489014 -50)
(5.43932294846 -5.7305431366 -50)
(5.65530490875 -8.24727344513 -50)
(-1.65321600437 8.43730735779 -50)
(-1.65974497795 8.44061183929 -50)
(-1.6662889719 8.44388389587 -50)
(-1.67285001278 8.44712352753 -50)
(-1.43214404583 9.89691734314 -50)
(0.728753983974 -3.76955699921 -50)
(-2.93931508064 -8.45820140839 -50)
(5.31050300598 3.15554499626 -50)
(-3.64368104935 -7.75295495987 -50)
(1.33669805527 1.90326201916 -50)
(1.46026694775 2.60235595703 -50)
(4.74468898773 -5.03504085541 -50)
(-2.93268299103 -8.46129322052 -50)
(-3.64676403999 -7.74631881714 -50)
(4.81383800507 3.65283107758 -50)
(5.4459400177 -5.73366689682 -50)
(4.74157381058 -5.02841997147 -50)
(0.735090970993 -3.76589798927 -50)
(-4.78201723099 -8.78250026703 -50)
(5.31677484512 3.15177607536 -50)
(1.33369803429 1.89658796787 -50)
(-2.92603492737 -8.46435070038 -50)
(1.45973694324 2.60965394974 -50)
(-3.64981293678 -7.73966693878 -50)
(5.4525718689 -5.73675823212 -50)
(4.8100771904 3.65910792351 -50)
(0.741410017014 -3.76220798492 -50)
(-2.91937303543 -8.46737480164 -50)
(-3.65282988548 -7.73300123215 -50)
(5.32306623459 3.14803791046 -50)
(1.33066499233 1.88992905617 -50)
(-3.27497410774 -9.4485206604 -50)
(-2.91269493103 -8.47036552429 -50)
(-3.65581297874 -7.72631883621 -50)
(4.80634689331 3.66540288925 -50)
(1.45917105675 2.61694908142 -50)
(4.73849105835 -5.02178382874 -50)
(5.45921897888 -5.73981618881 -50)
(5.69645881653 -8.21890258789 -50)
(0.747709989548 -3.75848603249 -50)
(-2.90600204468 -8.47332382202 -50)
(-3.65876197815 -7.71962308884 -50)
(5.32937479019 3.14433193207 -50)
(1.32759904861 1.88328504562 -50)
(4.73544216156 -5.01513290405 -50)
(-4.82585716248 -8.75848770142 -50)
(-2.89929509163 -8.47624874115 -50)
(1.45856797695 2.62424206734 -50)
(5.46588182449 -5.74284076691 -50)
(4.73242521286 -5.00846576691 -50)
(0.753991007805 -3.75473308563 -50)
(-3.66167807579 -7.71291208267 -50)
(4.80264902115 3.67171692848 -50)
(-2.89257311821 -8.479139328 -50)
(-3.66456007957 -7.70618581772 -50)
(1.32449996471 1.87665700912 -50)
(5.33570194244 3.14065790176 -50)
(5.47255992889 -5.7458319664 -50)
(4.72944307327 -5.00178480148 -50)
(1.45792901516 2.63153100014 -50)
(-2.885835886 -8.48199558258 -50)
(0.76025301218 -3.75094795227 -50)
(-3.66740894318 -7.699447155 -50)
(4.79898309708 3.67804908752 -50)
(-2.87908601761 -8.48481941223 -50)
(-3.22770404816 -9.4647731781 -50)
(-3.67022299767 -7.69269323349 -50)
(5.47925281525 -5.74878883362 -50)
(5.73747014999 -8.190325737 -50)
(1.32136797905 1.870043993 -50)
(5.34204816818 3.13701510429 -50)
(4.72649288177 -4.99508905411 -50)
(0.766497015953 -3.74713301659 -50)
(1.45725297928 2.63881707191 -50)
(-4.86957597733 -8.73425579071 -50)
(-2.87232089043 -8.48760890961 -50)
(4.79534816742 3.68440008163 -50)
(-3.67300510406 -7.68592500687 -50)
(-2.86554288864 -8.49036502838 -50)
(5.48596000671 -5.75171422958 -50)
(1.31820201874 1.86344695091 -50)
(5.34841299057 3.13340401649 -50)
(0.772720992565 -3.74328589439 -50)
(-3.67575192451 -7.67914295197 -50)
(1.45654094219 2.64609909058 -50)
(-2.85875105858 -8.49308681488 -50)
(-3.67846488953 -7.67234706879 -50)
(4.79174518585 3.69076800346 -50)
(4.72357702255 -4.98837804794 -50)
(5.49268198013 -5.75460386276 -50)
(4.72069501877 -4.98165178299 -50)
(-2.8519449234 -8.4957742691 -50)
(-3.18035292625 -9.4807882309 -50)
(0.7789260149 -3.7394080162 -50)
(-3.68114495277 -7.66553783417 -50)
(1.31500399113 1.85686600208 -50)
(5.3547949791 3.1298251152 -50)
(1.45579302311 2.6533780098 -50)
(-4.91317415237 -8.70980644226 -50)
(-2.84512591362 -8.49842834473 -50)
(4.78817415237 3.69715499878 -50)
(5.77833795547 -8.1615447998 -50)
(5.49941921234 -5.75746202469 -50)
(0.785111010075 -3.73549890518 -50)
(-3.68378996849 -7.65871620178 -50)
(1.31177294254 1.8503010273 -50)
(5.36119413376 3.12627792358 -50)
(-2.83829402924 -8.50104808807 -50)
(1.45500802994 2.66065311432 -50)
(-3.68640089035 -7.65188121796 -50)
(-2.83144903183 -8.50363254547 -50)
(4.78463506699 3.70355892181 -50)
(4.71784591675 -4.9749121666 -50)
(-3.68897795677 -7.64503192902 -50)
(1.3085089922 1.84375202656 -50)
(5.36761188507 3.12276291847 -50)
(-2.8245909214 -8.50618457794 -50)
(4.78112697601 3.70998096466 -50)
(5.50616884232 -5.76028490067 -50)
(-3.69151997566 -7.63817119598 -50)
(1.45418703556 2.66792392731 -50)
(0.791276991367 -3.73155903816 -50)
(-4.9566488266 -8.68513870239 -50)
(-3.1329240799 -9.49656677246 -50)
(-2.81772089005 -8.50870132446 -50)
(1.30521202087 1.83721899986 -50)
(5.37404680252 3.11928009987 -50)
(4.715031147 -4.96815776825 -50)
(5.51293420792 -5.7630739212 -50)
(-3.69402909279 -7.63129806519 -50)
(4.7122502327 -4.96139001846 -50)
(1.45332896709 2.67518997192 -50)
(0.797423005104 -3.72758793831 -50)
(-2.81083798409 -8.51118373871 -50)
(-3.69650292397 -7.62441110611 -50)
(4.7776517868 3.71641993523 -50)
(-2.8039419651 -8.51363182068 -50)
(5.38049888611 3.11582899094 -50)
(1.30188298225 1.83070397377 -50)
(5.81906223297 -8.13255882263 -50)
(5.51971197128 -5.76583003998 -50)
(-3.69894194603 -7.61751317978 -50)
(0.803550004959 -3.72358703613 -50)
(-2.79703497887 -8.51604557037 -50)
(1.45243501663 2.6824529171 -50)
(-3.70134711266 -7.61060190201 -50)
(4.77420902252 3.7228770256 -50)
(-5 -8.66025352478 -50)
(4.70950317383 -4.95460796356 -50)
(-2.79011511803 -8.51842498779 -50)
(5.52650403976 -5.76855182648 -50)
(5.38696908951 3.11241102219 -50)
(1.29852104187 1.82420396805 -50)
(0.809656023979 -3.71955490112 -50)
(1.45150494576 2.68970990181 -50)
(-3.70371794701 -7.60368013382 -50)
(-2.78318405151 -8.52076911926 -50)
(-3.08541607857 -9.5121088028 -50)
(4.77079916 3.7293510437 -50)
(4.70678901672 -4.94781303406 -50)
(5.53330898285 -5.77124023438 -50)
(4.70411014557 -4.94100379944 -50)
(-3.70605301857 -7.59674501419 -50)
(0.81574100256 -3.71549296379 -50)
(-2.77624106407 -8.52307891846 -50)
(1.29512703419 1.81772196293 -50)
(5.39345502853 3.10902500153 -50)
(1.45053899288 2.6969640255 -50)
(-5.04322576523 -8.63515281677 -50)
(-3.70835399628 -7.58979892731 -50)
(-2.76928591728 -8.52535438538 -50)
(-3.71062111855 -7.58284187317 -50)
(4.76742076874 3.73584103584 -50)
(5.85964012146 -8.1033706665 -50)
(5.54012823105 -5.77389383316 -50)
(0.821807026863 -3.71140003204 -50)
(5.39995908737 3.10567092896 -50)
(1.29170000553 1.81125700474 -50)
(-2.76232004166 -8.52759456635 -50)
(-3.71285200119 -7.5758728981 -50)
(1.44953596592 2.7042119503 -50)
(4.70146512985 -4.93418216705 -50)
(-2.75534296036 -8.52979946136 -50)
(4.76407623291 3.74234890938 -50)
(6.71240377426 -3.09418988228 -50)
(6.70582723618 -3.09098410606 -50)
(6.69923400879 -3.08781003952 -50)
(5.54695987701 -5.77651309967 -50)
(4.69885396957 -4.92734622955 -50)
(9.90221595764 -1.39503097534 -50)
(0.827852010727 -3.70727705956 -50)
(-3.7150490284 -7.56889390945 -50)
(-2.7483561039 -8.53197002411 -50)
(-3.03783106804 -9.52741241455 -50)
(1.28824198246 1.80480897427 -50)
(5.40647792816 3.10234999657 -50)
(-3.71721100807 -7.56190299988 -50)
(1.44849705696 2.71145510674 -50)
(5.55380582809 -5.77909898758 -50)
(4.69627714157 -4.92049789429 -50)
(-5.08632612228 -8.60983657837 -50)
(0.833876013756 -3.70312404633 -50)
(-2.74135708809 -8.5341053009 -50)
(4.76076316833 3.74887299538 -50)
(1.28475105762 1.79837799072 -50)
(5.41301488876 3.09906101227 -50)
(-3.71933794022 -7.55490207672 -50)
(-2.7343480587 -8.53620624542 -50)
(4.75748300552 3.75541400909 -50)
(1.44742202759 2.71869206429 -50)
(5.90007209778 -8.07398033142 -50)
(5.56066417694 -5.78165006638 -50)
(4.69373416901 -4.91363716125 -50)
(0.839879989624 -3.69894099236 -50)
(-3.72142910957 -7.54789018631 -50)
(-2.72732806206 -8.53827190399 -50)
(1.28122699261 1.79196500778 -50)
(5.41956806183 3.09580588341 -50)
(-3.72348594666 -7.54086780548 -50)
(4.7542347908 3.76197099686 -50)
(1.44631099701 2.72592401505 -50)
(5.56753396988 -5.7841668129 -50)
(-2.72029900551 -8.54030227661 -50)
(0.845861971378 -3.69472789764 -50)
(-5.12929916382 -8.58430480957 -50)
(-3.72550797462 -7.53383588791 -50)
(-2.99017000198 -9.54247760773 -50)
(-2.7132589817 -8.54229736328 -50)
(1.27767205238 1.78557002544 -50)
(5.42613697052 3.09258294106 -50)
(4.75101995468 3.76854395866 -50)
(4.69122600555 -4.90676307678 -50)
(5.57441806793 -5.78665018082 -50)
(1.44516301155 2.73315095901 -50)
(-3.72749400139 -7.52679300308 -50)
(0.851822972298 -3.69048500061 -50)
(-2.70620894432 -8.544257164 -50)
(-3.72944498062 -7.51974201202 -50)
(-2.69915008545 -8.54618167877 -50)
(-3.73136091232 -7.51268005371 -50)
(-1.62727105618 8.42376232147 -50)
(-1.63373196125 8.42719745636 -50)
(-1.64021003246 8.43059921265 -50)
(-1.64670503139 8.43396854401 -50)
(-1.3826559782 9.9039516449 -50)
(4.68875217438 -4.89987707138 -50)
(5.58131313324 -5.78909778595 -50)
(5.94035577774 -8.04438781738 -50)
(0.857762992382 -3.68621206284 -50)
(1.27408504486 1.77919197083 -50)
(5.43272209167 3.08939290047 -50)
(-2.6920800209 -8.54807090759 -50)
(-3.73324203491 -7.50560808182 -50)
(1.44397997856 2.74037194252 -50)
(4.68631315231 -4.89297819138 -50)
(5.58822107315 -5.79151105881 -50)
(-5.17214393616 -8.55855846405 -50)
(-2.68500208855 -8.54992485046 -50)
(-2.94243407249 -9.557305336 -50)
(4.74783802032 3.77513289452 -50)
(0.863681972027 -3.68191003799 -50)
(1.27046597004 1.77283298969 -50)
(5.43932294846 3.08623600006 -50)
(-3.73508691788 -7.49852800369 -50)
(-2.67791509628 -8.55174446106 -50)
(4.74468898773 3.78173804283 -50)
(1.44275999069 2.74758696556 -50)
(4.68390798569 -4.88606786728 -50)
(5.59513998032 -5.79388999939 -50)
(4.68153715134 -4.87914514542 -50)
(0.869579017162 -3.67757797241 -50)
(-3.73689699173 -7.49143791199 -50)
(-2.67081809044 -8.55352687836 -50)
(-3.73867106438 -7.48433923721 -50)
(5.4459400177 3.08311200142 -50)
(1.26681602001 1.76649105549 -50)
(1.44150495529 2.75479507446 -50)
(4.74157381058 3.7883579731 -50)
(-2.66371297836 -8.55527496338 -50)
(5.60207080841 -5.79623508453 -50)
(5.98049211502 -8.01459407806 -50)
(0.875454008579 -3.67321610451 -50)
(-5.21485996246 -8.53259754181 -50)
(-3.74041008949 -7.47723197937 -50)
(-2.6565990448 -8.55698680878 -50)
(5.4525718689 3.08001995087 -50)
(1.26313304901 1.76016795635 -50)
(1.44021296501 2.76199793816 -50)
(4.67920207977 -4.87221097946 -50)
(5.60901498795 -5.79854393005 -50)
(4.67689990997 -4.86526489258 -50)
(-3.7421131134 -7.47011518478 -50)
(-2.64947605133 -8.55866336823 -50)
(-2.89462399483 -9.57189369202 -50)
(0.881308019161 -3.66882610321 -50)
(4.73849105835 3.79499411583 -50)
(5.45921897888 3.07696294785 -50)
(-3.74378108978 -7.46299123764 -50)
(1.25942003727 1.75386404991 -50)
(-2.6423459053 -8.56030464172 -50)
(1.43888604641 2.76919293404 -50)
(-3.74541306496 -7.45585823059 -50)
(-5.25744485855 -8.50642490387 -50)
(-2.63520693779 -8.5619096756 -50)
(4.73544216156 3.80164599419 -50)
(5.61596918106 -5.80081892014 -50)
(1.25567400455 1.74757802486 -50)
(5.46588182449 3.07393789291 -50)
(4.73242521286 3.80831193924 -50)
(0.88713902235 -3.66440606117 -50)
(-3.74700903893 -7.44871711731 -50)
(-2.62806010246 -8.56347942352 -50)
(1.43752205372 2.77638196945 -50)
(4.6746339798 -4.85830783844 -50)
(-3.74856996536 -7.4415678978 -50)
(5.62293481827 -5.80306005478 -50)
(-2.62090492249 -8.56501293182 -50)
(4.67240190506 -4.85133886337 -50)
(1.25189805031 1.74131095409 -50)
(5.47255992889 3.07094693184 -50)
(0.8929489851 -3.65995693207 -50)
(1.4361230135 2.78356409073 -50)
(-3.75009489059 -7.43441200256 -50)
(-2.61374306679 -8.56651115417 -50)
(-2.84674310684 -9.58624267578 -50)
(4.72944307327 3.81499409676 -50)
(5.62991094589 -5.8052649498 -50)
(6.02047920227 -7.98460006714 -50)
(-5.29989910126 -8.48003959656 -50)
(0.898734986782 -3.65547895432 -50)
(-3.75158405304 -7.4272480011 -50)
(-2.60657405853 -8.5679731369 -50)
(5.47925281525 3.06798911095 -50)
(-3.75303697586 -7.4200758934 -50)
(4.72649288177 3.82169008255 -50)
(1.43468701839 2.79073905945 -50)
(-2.59939694405 -8.56939983368 -50)
(4.67020606995 -4.84435892105 -50)
(5.63689899445 -5.80743598938 -50)
(-3.75445389748 -7.41289806366 -50)
(0.904500007629 -3.6509718895 -50)
(5.49268198013 -3.0621740818 -50)
(5.48596000671 -3.06506490707 -50)
(5.47925281525 -3.06798911095 -50)
(5.48596000671 3.06506490707 -50)
(-2.59221291542 -8.57079029083 -50)
(-3.75583600998 -7.40571308136 -50)
(1.43321597576 2.79790711403 -50)
(4.66804409027 -4.83736896515 -50)
(5.64389801025 -5.80957078934 -50)
(-5.34222078323 -8.45344161987 -50)
(-2.58502197266 -8.57214546204 -50)
(4.72357702255 3.82840108871 -50)
(-3.75718092918 -7.39851999283 -50)
(0.910242021084 -3.6464369297 -50)