/*--------------------------------*- C++ -*----------------------------------*\
  =========                 |
  \\      /  F ield         | OpenFOAM: The Open Source CFD Toolbox
   \\    /   O peration     | Website:  https://openfoam.org
    \\  /    A nd           | Version:  9
     \\/     M anipulation  |
\*---------------------------------------------------------------------------*/
FoamFile
{
    format      ascii;
    class       volScalarField;
    location    "0";
    object      cellToRegion;
}
// * * * * * * * * * * * * * * * * * * * * * * * * * * * * * * * * * * * * * //

dimensions      [0 0 0 0 0 0 0];

internalField   uniform 0;

boundaryField
{
    fluidInlet
    {
        type            zeroGradient;
    }
    fluidOutlet
    {
        type            zeroGradient;
    }
    cylExtSurf
    {
        type            zeroGradient;
    }
    inletCatalystFluidWall_to_inletCatalyst
    {
        type            zeroGradient;
    }
    outletCatalystFluidWall_to_outletCatalyst
    {
        type            zeroGradient;
    }
    Channels_to_Catalyst
    {
        type            zeroGradient;
    }
}


// ************************************************************************* //
