/*--------------------------------*- C++ -*----------------------------------*\
  =========                 |
  \\      /  F ield         | OpenFOAM: The Open Source CFD Toolbox
   \\    /   O peration     | Website:  https://openfoam.org
    \\  /    A nd           | Version:  9
     \\/     M anipulation  |
\*---------------------------------------------------------------------------*/
FoamFile
{
    format      ascii;
    class       dictionary;
    location    "system";
    object      controlDict;
}
// * * * * * * * * * * * * * * * * * * * * * * * * * * * * * * * * * * * * * //
flurho $RHO;
refPressure $caseOutletp;
WIM $writeIntervalMomentum;

application     pimpleFoam;

startFrom       startTime;

startTime       0;

stopAt          endTime;

endTime         $endTMomentum;

deltaT          #calc "$WIM * 0.5";

writeControl    runTime;

writeInterval   $writeIntervalMomentum;

purgeWrite      0;

writeFormat     ascii;

writePrecision  6;

writeCompression off;

timeFormat      general;

timePrecision   6;

maxCo  0.1;

adjustTimeStep yes;

runTimeModifiable true;

//functions
//{
//    dynamicP_to_StaticP
//    {
//        // Mandatory entries (unmodifiable)
//        type        pressure;
//        libs        ("libfieldFunctionObjects.so");
//        U           U;
//        field       p;
//        rho         uniform $flurho;
//        pRef        $refPressure;
//        calcTotal   no;
//        calcCoeff   no;
//    }
//}


// ************************************************************************* //
