/*--------------------------------*- C++ -*----------------------------------*\
  =========                 |
  \\      /  F ield         | OpenFOAM: The Open Source CFD Toolbox
   \\    /   O peration     | Website:  https://openfoam.org
    \\  /    A nd           | Version:  9
     \\/     M anipulation  |
\*---------------------------------------------------------------------------*/
FoamFile
{
    format      ascii;
    class       dictionary;
    location    "system";
    object      postProcessDict;
}
// * * * * * * * * * * * * * * * * * * * * * * * * * * * * * * * * * * * * * //
// Required variables
flurho $RHO;
refPressure $caseOutletp;

// Defined functions:
functions
{
    dynamicP_to_StaticP
    {
        // Mandatory entries (unmodifiable)
        type        pressure;
        libs        ("libfieldFunctionObjects.so");
        U           U;
        field       p;
        rho         uniform $flurho;
        pRef        $refPressure;
        calcTotal   no;
        calcCoeff   no;
    }
}


// ************************************************************************* //