/*--------------------------------*- C++ -*----------------------------------*\
  =========                 |
  \\      /  F ield         | OpenFOAM: The Open Source CFD Toolbox
   \\    /   O peration     | Website:  https://openfoam.org
    \\  /    A nd           | Version:  9
     \\/     M anipulation  |
\*---------------------------------------------------------------------------*/
FoamFile
{
    format      ascii;
    class       featureEdgeMesh;
    location    "constant/triSurface";
    object      ChannelSurf.eMesh;
}
// * * * * * * * * * * * * * * * * * * * * * * * * * * * * * * * * * * * * * //


// points:

17598
(
(1.46385002136 2.5 50)
(1.46383202076 2.50731706619 50)
(1.46383202076 2.50731706619 -50)
(1.46385002136 2.5 -50)
(1.46377694607 2.51463389397 50)
(1.46368598938 2.52195000648 50)
(1.46377694607 2.51463389397 -50)
(1.46368598938 2.52195000648 -50)
(1.46355700493 2.52926707268 50)
(1.46339297295 2.5365819931 50)
(1.46355700493 2.52926707268 -50)
(1.46339297295 2.5365819931 -50)
(1.46319198608 2.54389595985 50)
(1.46319198608 2.54389595985 -50)
(1.46295404434 2.55120897293 50)
(1.46295404434 2.55120897293 -50)
(1.46267998219 2.55852198601 50)
(1.46267998219 2.55852198601 -50)
(1.46236896515 2.56583189964 50)
(1.46202194691 2.57314109802 50)
(1.46236896515 2.56583189964 -50)
(1.46202194691 2.57314109802 -50)
(1.46163797379 2.58044791222 50)
(1.46121799946 2.58775305748 50)
(1.46163797379 2.58044791222 -50)
(1.46121799946 2.58775305748 -50)
(1.46076095104 2.59505605698 50)
(1.46076095104 2.59505605698 -50)
(1.46026694775 2.60235595703 50)
(1.45973694324 2.60965394974 50)
(1.46026694775 2.60235595703 -50)
(1.45917105675 2.61694908142 50)
(1.45973694324 2.60965394974 -50)
(1.45856797695 2.62424206734 50)
(1.45917105675 2.61694908142 -50)
(1.45856797695 2.62424206734 -50)
(1.45792901516 2.63153100014 50)
(1.45725297928 2.63881707191 50)
(1.45792901516 2.63153100014 -50)
(1.45725297928 2.63881707191 -50)
(1.45654094219 2.64609909058 50)
(1.45654094219 2.64609909058 -50)
(1.45579302311 2.6533780098 50)
(1.45500802994 2.66065311432 50)
(1.45579302311 2.6533780098 -50)
(1.45500802994 2.66065311432 -50)
(1.45418703556 2.66792392731 50)
(1.45418703556 2.66792392731 -50)
(1.45332896709 2.67518997192 50)
(1.45243501663 2.6824529171 50)
(1.45332896709 2.67518997192 -50)
(1.45243501663 2.6824529171 -50)
(1.45150494576 2.68970990181 -50)
(1.45150494576 2.68970990181 50)
(1.45053899288 2.6969640255 50)
(1.45053899288 2.6969640255 -50)
(1.44953596592 2.7042119503 -50)
(1.44953596592 2.7042119503 50)
(1.44849705696 2.71145510674 50)
(1.44849705696 2.71145510674 -50)
(1.44742202759 2.71869206429 50)
(1.44742202759 2.71869206429 -50)
(1.44631099701 2.72592401505 50)
(1.44631099701 2.72592401505 -50)
(1.44516301155 2.73315095901 -50)
(1.44516301155 2.73315095901 50)
(1.44397997856 2.74037194252 -50)
(1.44397997856 2.74037194252 50)
(1.44275999069 2.74758696556 50)
(1.44275999069 2.74758696556 -50)
(1.44150495529 2.75479507446 -50)
(1.44150495529 2.75479507446 50)
(1.44021296501 2.76199793816 50)
(1.44021296501 2.76199793816 -50)
(1.43888604641 2.76919293404 50)
(1.43888604641 2.76919293404 -50)
(1.43752205372 2.77638196945 50)
(1.43752205372 2.77638196945 -50)
(1.4361230135 2.78356409073 50)
(1.4361230135 2.78356409073 -50)
(1.43468701839 2.79073905945 50)
(1.43468701839 2.79073905945 -50)
(1.43321597576 2.79790711403 50)
(1.43321597576 2.79790711403 -50)
(1.43170905113 2.80506706238 50)
(1.43016600609 2.81222009659 50)
(1.43170905113 2.80506706238 -50)
(1.43016600609 2.81222009659 -50)
(1.42858803272 2.81936502457 50)
(1.42697405815 2.82650208473 50)
(1.42858803272 2.81936502457 -50)
(1.42532396317 2.83363008499 50)
(1.42697405815 2.82650208473 -50)
(1.42532396317 2.83363008499 -50)
(1.42363798618 2.84075093269 50)
(1.42191696167 2.84786200523 50)
(1.42363798618 2.84075093269 -50)
(1.42016100883 2.85496592522 50)
(1.42191696167 2.84786200523 -50)
(1.42016100883 2.85496592522 -50)
(1.41836905479 2.86206007004 50)
(1.41654098034 2.86914491653 50)
(1.41836905479 2.86206007004 -50)
(1.41654098034 2.86914491653 -50)
(1.41467797756 2.87622094154 -50)
(1.41467797756 2.87622094154 50)
(1.41278004646 2.88328790665 50)
(1.41278004646 2.88328790665 -50)
(1.41084694862 2.89034509659 -50)
(1.41084694862 2.89034509659 50)
(1.40887796879 2.89739203453 -50)
(1.40887796879 2.89739203453 50)
(1.40687394142 2.90442895889 -50)
(1.40687394142 2.90442895889 50)
(1.40483498573 2.91145706177 -50)
(1.40483498573 2.91145706177 50)
(1.40276098251 2.91847395897 -50)
(1.40276098251 2.91847395897 50)
(1.40065097809 2.92547988892 50)
(1.40065097809 2.92547988892 -50)
(1.39850699902 2.9324760437 -50)
(1.39850699902 2.9324760437 50)
(1.39632797241 2.93946099281 -50)
(1.39632797241 2.93946099281 50)
(1.39411401749 2.94643497467 50)
(1.39411401749 2.94643497467 -50)
(1.39186501503 2.95339798927 -50)
(1.39186501503 2.95339798927 50)
(1.38958096504 2.96035003662 -50)
(1.38958096504 2.96035003662 50)
(1.38726198673 2.96728992462 50)
(1.38726198673 2.96728992462 -50)
(1.38490903378 2.97421789169 -50)
(1.38490903378 2.97421789169 50)
(1.38252198696 2.98113489151 -50)
(1.38252198696 2.98113489151 50)
(1.38009905815 2.9880399704 -50)
(1.38009905815 2.9880399704 50)
(1.37764298916 2.99493193626 50)
(1.37764298916 2.99493193626 -50)
(1.37515199184 3.0018119812 50)
(1.37515199184 3.0018119812 -50)
(1.372625947 3.00867891312 50)
(1.372625947 3.00867891312 -50)
(1.37006604671 3.0155339241 50)
(1.37006604671 3.0155339241 -50)
(1.36747205257 3.02237606049 50)
(1.36747205257 3.02237606049 -50)
(1.36484396458 3.02920508385 50)
(1.36484396458 3.02920508385 -50)
(1.36218202114 3.03602099419 50)
(1.36218202114 3.03602099419 -50)
(1.35948503017 3.04282307625 50)
(1.35948503017 3.04282307625 -50)
(1.35675501823 3.04961204529 50)
(1.35675501823 3.04961204529 -50)
(1.35399103165 3.05638599396 -50)
(1.35399103165 3.05638599396 50)
(1.3511929512 3.06314706802 -50)
(1.3511929512 3.06314706802 50)
(1.34836101532 3.06989407539 -50)
(1.34836101532 3.06989407539 50)
(1.34549605846 3.07662701607 -50)
(1.34549605846 3.07662701607 50)
(1.34259700775 3.08334493637 -50)
(1.34259700775 3.08334493637 50)
(1.33966398239 3.0900490284 50)
(1.33966398239 3.0900490284 -50)
(1.33669805527 3.09673810005 -50)
(1.33669805527 3.09673810005 50)
(1.33369803429 3.10341191292 -50)
(1.33369803429 3.10341191292 50)
(1.33066499233 3.11007094383 -50)
(1.33066499233 3.11007094383 50)
(1.32759904861 3.11671495438 -50)
(1.32759904861 3.11671495438 50)
(1.32449996471 3.12334299088 -50)
(1.32449996471 3.12334299088 50)
(1.32136797905 3.129956007 -50)
(1.32136797905 3.129956007 50)
(1.31820201874 3.13655304909 -50)
(1.31820201874 3.13655304909 50)
(1.31500399113 3.14313411713 -50)
(1.31500399113 3.14313411713 50)
(1.31177294254 3.1496989727 -50)
(1.31177294254 3.1496989727 50)
(1.3085089922 3.15624809265 -50)
(1.3085089922 3.15624809265 50)
(1.30521202087 3.16278100014 50)
(1.30521202087 3.16278100014 -50)
(1.30188298225 3.1692969799 -50)
(1.30188298225 3.1692969799 50)
(1.29852104187 3.17579603195 -50)
(1.29852104187 3.17579603195 50)
(1.29512703419 3.18227791786 -50)
(1.29512703419 3.18227791786 50)
(1.29170000553 3.18874311447 -50)
(1.29170000553 3.18874311447 50)
(1.28824198246 3.19519090652 -50)
(1.28824198246 3.19519090652 50)
(1.28475105762 3.20162200928 50)
(1.28475105762 3.20162200928 -50)
(1.28122699261 3.20803499222 50)
(1.28122699261 3.20803499222 -50)
(1.27767205238 3.21443009377 50)
(1.27767205238 3.21443009377 -50)
(1.27408504486 3.22080802917 -50)
(1.27408504486 3.22080802917 50)
(1.27046597004 3.2271668911 50)
(1.27046597004 3.2271668911 -50)
(1.26681602001 3.23350906372 50)
(1.26681602001 3.23350906372 -50)
(1.26313304901 3.23983192444 50)
(1.26313304901 3.23983192444 -50)
(1.25942003727 3.24613595009 50)
(1.25567400455 3.25242209435 50)
(1.25942003727 3.24613595009 -50)
(1.25567400455 3.25242209435 -50)
(1.25189805031 3.2586889267 50)
(1.24809002876 3.26493811607 50)
(1.25189805031 3.2586889267 -50)
(1.24809002876 3.26493811607 -50)
(1.24425005913 3.27116703987 50)
(1.24425005913 3.27116703987 -50)
(1.24038004875 3.27737593651 50)
(1.24038004875 3.27737593651 -50)
(1.23647904396 3.28356695175 50)
(1.23647904396 3.28356695175 -50)
(1.23254704475 3.28973793983 50)
(1.23254704475 3.28973793983 -50)
(1.22858405113 3.29588890076 50)
(1.22858405113 3.29588890076 -50)
(1.22458994389 3.30202007294 50)
(1.22458994389 3.30202007294 -50)
(1.22056603432 3.30813097954 50)
(1.22056603432 3.30813097954 -50)
(1.21651101112 3.3142220974 50)
(1.21651101112 3.3142220974 -50)
(1.21242594719 3.320291996 50)
(1.21242594719 3.320291996 -50)
(1.20831096172 3.32634305954 50)
(1.20831096172 3.32634305954 -50)
(1.20416498184 3.33237195015 50)
(1.20416498184 3.33237195015 -50)
(1.1999900341 3.33838105202 50)
(1.1999900341 3.33838105202 -50)
(1.19578397274 3.34436798096 50)
(1.19578397274 3.34436798096 -50)
(1.19154798985 3.35033488274 50)
(1.18728303909 3.3562810421 50)
(1.19154798985 3.35033488274 -50)
(1.18728303909 3.3562810421 -50)
(1.1829880476 3.36220502853 50)
(1.1829880476 3.36220502853 -50)
(1.17866301537 3.36810708046 50)
(1.17866301537 3.36810708046 -50)
(1.17430901527 3.37398791313 50)
(1.16992604733 3.37984704971 50)
(1.17430901527 3.37398791313 -50)
(1.16992604733 3.37984704971 -50)
(1.16551399231 3.38568401337 -50)
(1.16551399231 3.38568401337 50)
(1.16107201576 3.39149808884 -50)
(1.16107201576 3.39149808884 50)
(1.15660095215 3.39729094505 -50)
(1.15660095215 3.39729094505 50)
(1.15210199356 3.40306091309 -50)
(1.15210199356 3.40306091309 50)
(1.14757299423 3.40880799294 -50)
(1.14757299423 3.40880799294 50)
(1.14301598072 3.41453289986 -50)
(1.14301598072 3.41453289986 50)
(1.13843095303 3.42023491859 50)
(1.13843095303 3.42023491859 -50)
(1.13381695747 3.42591404915 50)
(1.13381695747 3.42591404915 -50)
(1.12917399406 3.4315700531 50)
(1.12917399406 3.4315700531 -50)
(1.12450397015 3.43720293045 50)
(1.12450397015 3.43720293045 -50)
(1.11980497837 3.44281196594 50)
(1.11980497837 3.44281196594 -50)
(1.11507797241 3.44839692116 50)
(1.11507797241 3.44839692116 -50)
(1.11032402515 3.45395898819 50)
(1.11032402515 3.45395898819 -50)
(1.10554099083 3.45949697495 50)
(1.10554099083 3.45949697495 -50)
(1.10073101521 3.46501207352 50)
(1.10073101521 3.46501207352 -50)
(1.09589397907 3.47050094604 50)
(1.09589397907 3.47050094604 -50)
(1.09102904797 3.47596693039 50)
(1.09102904797 3.47596693039 -50)
(1.08613705635 3.48140907288 50)
(1.08613705635 3.48140907288 -50)
(1.08121800423 3.48682498932 50)
(1.08121800423 3.48682498932 -50)
(1.0762720108 3.49221801758 50)
(1.0762720108 3.49221801758 -50)
(1.07129895687 3.49758505821 50)
(1.06629896164 3.50292801857 50)
(1.07129895687 3.49758505821 -50)
(1.06629896164 3.50292801857 -50)
(1.06127297878 3.5082449913 -50)
(1.06127297878 3.5082449913 50)
(1.05622005463 3.51353693008 -50)
(1.05622005463 3.51353693008 50)
(1.05113995075 3.51880407333 -50)
(1.05113995075 3.51880407333 50)
(1.04603397846 3.52404499054 -50)
(1.04603397846 3.52404499054 50)
(1.04090297222 3.52926111221 -50)
(1.04090297222 3.52926111221 50)
(1.03574502468 3.53445100784 50)
(1.03574502468 3.53445100784 -50)
(1.03056097031 3.53961610794 -50)
(1.03056097031 3.53961610794 50)
(1.02535200119 3.54475402832 -50)
(1.02535200119 3.54475402832 50)
(1.02011704445 3.54986596107 -50)
(1.02011704445 3.54986596107 50)
(1.01485598087 3.5549519062 -50)
(1.01485598087 3.5549519062 50)
(1.00957000256 3.56001210213 -50)
(1.00957000256 3.56001210213 50)
(1.00425899029 3.56504511833 -50)
(1.00425899029 3.56504511833 50)
(0.998923003674 3.57005095482 -50)
(0.998923003674 3.57005095482 50)
(0.993561983109 3.5750310421 -50)
(0.993561983109 3.5750310421 50)
(0.988175988197 3.57998394966 -50)
(0.988175988197 3.57998394966 50)
(0.98276501894 3.58490991592 -50)
(0.98276501894 3.58490991592 50)
(0.977330029011 3.58980894089 -50)
(0.977330029011 3.58980894089 50)
(0.971870005131 3.59468102455 -50)
(0.971870005131 3.59468102455 50)
(0.966386020184 3.59952497482 50)
(0.966386020184 3.59952497482 -50)
(0.960878014565 3.6043419838 50)
(0.960878014565 3.6043419838 -50)
(0.955345988274 3.60913109779 50)
(0.955345988274 3.60913109779 -50)
(0.949790000916 3.6138920784 50)
(0.949790000916 3.6138920784 -50)
(0.944209992886 3.61862611771 50)
(0.944209992886 3.61862611771 -50)
(0.938606977463 3.62333202362 50)
(0.938606977463 3.62333202362 -50)
(0.932980000973 3.62800908089 50)
(0.932980000973 3.62800908089 -50)
(0.92733001709 3.63265895844 50)
(0.92733001709 3.63265895844 -50)
(0.921657025814 3.63727998734 50)
(0.915961027145 3.64187192917 50)
(0.921657025814 3.63727998734 -50)
(0.915961027145 3.64187192917 -50)
(0.910242021084 3.6464369297 -50)
(0.910242021084 3.6464369297 50)
(0.904500007629 3.6509718895 -50)
(0.904500007629 3.6509718895 50)
(0.898734986782 3.65547895432 -50)
(0.898734986782 3.65547895432 50)
(0.8929489851 3.65995693207 -50)
(0.8929489851 3.65995693207 50)
(0.88713902235 3.66440606117 -50)
(0.88713902235 3.66440606117 50)
(0.881308019161 3.66882610321 -50)
(0.881308019161 3.66882610321 50)
(0.875454008579 3.67321610451 -50)
(0.875454008579 3.67321610451 50)
(0.869579017162 3.67757797241 -50)
(0.869579017162 3.67757797241 50)
(0.863681972027 3.68191003799 -50)
(0.863681972027 3.68191003799 50)
(0.857762992382 3.68621206284 -50)
(0.857762992382 3.68621206284 50)
(0.851822972298 3.69048500061 -50)
(0.851822972298 3.69048500061 50)
(0.845861971378 3.69472789764 50)
(0.845861971378 3.69472789764 -50)
(0.839879989624 3.69894099236 50)
(0.839879989624 3.69894099236 -50)
(0.833876013756 3.70312404633 50)
(0.833876013756 3.70312404633 -50)
(0.827852010727 3.70727705956 -50)
(0.827852010727 3.70727705956 50)
(0.821807026863 3.71140003204 -50)
(0.821807026863 3.71140003204 50)
(0.81574100256 3.71549296379 -50)
(0.81574100256 3.71549296379 50)
(0.809656023979 3.71955490112 50)
(0.809656023979 3.71955490112 -50)
(0.803550004959 3.72358703613 -50)
(0.803550004959 3.72358703613 50)
(0.797423005104 3.72758793831 -50)
(0.797423005104 3.72758793831 50)
(0.791276991367 3.73155903816 -50)
(0.791276991367 3.73155903816 50)
(0.785111010075 3.73549890518 50)
(0.785111010075 3.73549890518 -50)
(0.7789260149 3.7394080162 50)
(0.772720992565 3.74328589439 50)
(0.7789260149 3.7394080162 -50)
(0.766497015953 3.74713301659 50)
(0.772720992565 3.74328589439 -50)
(0.766497015953 3.74713301659 -50)
(0.76025301218 3.75094795227 50)
(0.76025301218 3.75094795227 -50)
(0.753991007805 3.75473308563 50)
(0.753991007805 3.75473308563 -50)
(0.747709989548 3.75848603249 50)
(0.747709989548 3.75848603249 -50)
(0.741410017014 3.76220798492 50)
(0.735090970993 3.76589798927 50)
(0.741410017014 3.76220798492 -50)
(0.735090970993 3.76589798927 -50)
(0.728753983974 3.76955699921 50)
(0.728753983974 3.76955699921 -50)
(0.722398996353 3.77318406105 50)
(0.722398996353 3.77318406105 -50)
(0.716026008129 3.77677893639 50)
(0.709635019302 3.78034210205 50)
(0.716026008129 3.77677893639 -50)
(0.709635019302 3.78034210205 -50)
(0.703226983547 3.78387308121 50)
(0.703226983547 3.78387308121 -50)
(0.696799993515 3.78737211227 50)
(0.696799993515 3.78737211227 -50)
(0.690357029438 3.79083895683 50)
(0.690357029438 3.79083895683 -50)
(0.683896005154 3.79427289963 50)
(0.683896005154 3.79427289963 -50)
(0.677417993546 3.79767608643 50)
(0.677417993546 3.79767608643 -50)
(0.670922994614 3.80104589462 50)
(0.664411008358 3.80438303947 50)
(0.670922994614 3.80104589462 -50)
(0.664411008358 3.80438303947 -50)
(0.657882988453 3.80768799782 50)
(0.651337981224 3.8109600544 50)
(0.657882988453 3.80768799782 -50)
(0.651337981224 3.8109600544 -50)
(0.64477699995 3.81419897079 50)
(0.64477699995 3.81419897079 -50)
(0.638199985027 3.8174059391 50)
(0.638199985027 3.8174059391 -50)
(0.631606996059 3.82058000565 50)
(0.631606996059 3.82058000565 -50)
(0.624997973442 3.82371997833 50)
(0.624997973442 3.82371997833 -50)
(0.61837297678 3.82682800293 50)
(0.61837297678 3.82682800293 -50)
(0.611733973026 3.82990193367 50)
(0.611733973026 3.82990193367 -50)
(0.605077981949 3.83294296265 50)
(0.605077981949 3.83294296265 -50)
(0.59840798378 3.83595108986 -50)
(0.59840798378 3.83595108986 50)
(0.591723024845 3.8389248848 50)
(0.591723024845 3.8389248848 -50)
(0.585022985935 3.84186601639 -50)
(0.585022985935 3.84186601639 50)
(0.578307986259 3.8447740078 -50)
(0.578307986259 3.8447740078 50)
(0.571578979492 3.84764790535 50)
(0.571578979492 3.84764790535 -50)
(0.564835011959 3.85048794746 -50)
(0.564835011959 3.85048794746 50)
(0.558077991009 3.85329508781 50)
(0.558077991009 3.85329508781 -50)
(0.551306009293 3.85606694221 50)
(0.551306009293 3.85606694221 -50)
(0.544520974159 3.85880589485 50)
(0.544520974159 3.85880589485 -50)
(0.537721991539 3.86151099205 50)
(0.537721991539 3.86151099205 -50)
(0.530910015106 3.86418199539 50)
(0.530910015106 3.86418199539 -50)
(0.524084985256 3.8668179512 50)
(0.524084985256 3.8668179512 -50)
(0.517246007919 3.86942100525 50)
(0.510393977165 3.87198901176 50)
(0.517246007919 3.86942100525 -50)
(0.510393977165 3.87198901176 -50)
(0.503530025482 3.87452292442 50)
(0.503530025482 3.87452292442 -50)
(0.49665299058 3.87702298164 50)
(0.49665299058 3.87702298164 -50)
(0.489764004946 3.87948799133 50)
(0.482861995697 3.88191890717 50)
(0.489764004946 3.87948799133 -50)
(0.482861995697 3.88191890717 -50)
(0.475948989391 3.88431596756 50)
(0.475948989391 3.88431596756 -50)
(0.469022989273 3.88667798042 50)
(0.462085992098 3.88900399208 50)
(0.469022989273 3.88667798042 -50)
(0.462085992098 3.88900399208 -50)
(0.455137014389 3.89129710197 50)
(0.448177009821 3.89355492592 50)
(0.455137014389 3.89129710197 -50)
(0.448177009821 3.89355492592 -50)
(0.441206008196 3.89577698708 -50)
(0.441206008196 3.89577698708 50)
(0.434222996235 3.89796495438 50)
(0.434222996235 3.89796495438 -50)
(0.427230000496 3.90011811256 50)
(0.427230000496 3.90011811256 -50)
(0.4202260077 3.9022359848 -50)
(0.4202260077 3.9022359848 50)
(0.413212001324 3.9043200016 -50)
(0.413212001324 3.9043200016 50)
(0.40618699789 3.90636706352 -50)
(0.40618699789 3.90636706352 50)
(0.399152010679 3.90838003159 50)
(0.399152010679 3.90838003159 -50)
(0.392107993364 3.91035795212 -50)
(0.392107993364 3.91035795212 50)
(0.385053008795 3.91230010986 50)
(0.385053008795 3.91230010986 -50)
(0.377988994122 3.91420698166 -50)
(0.377988994122 3.91420698166 50)
(0.37091499567 3.91607904434 50)
(0.37091499567 3.91607904434 -50)
(0.363831996918 3.91791510582 -50)
(0.363831996918 3.91791510582 50)
(0.356739997864 3.91971588135 -50)
(0.356739997864 3.91971588135 50)
(0.349638998508 3.92148208618 -50)
(0.349638998508 3.92148208618 50)
(0.342528998852 3.92321109772 -50)
(0.342528998852 3.92321109772 50)
(0.335411012173 3.9249060154 -50)
(0.335411012173 3.9249060154 50)
(0.328285008669 3.9265639782 -50)
(0.328285008669 3.9265639782 50)
(0.321150004864 3.92818808556 -50)
(0.321150004864 3.92818808556 50)
(0.314007014036 3.92977499962 50)
(0.314007014036 3.92977499962 -50)
(0.306856006384 3.93132710457 50)
(0.306856006384 3.93132710457 -50)
(0.299697995186 3.93284296989 50)
(0.299697995186 3.93284296989 -50)
(0.292531996965 3.93432307243 50)
(0.292531996965 3.93432307243 -50)
(0.285358995199 3.93576693535 50)
(0.278178006411 3.93717598915 50)
(0.285358995199 3.93576693535 -50)
(0.278178006411 3.93717598915 -50)
(0.270990997553 3.93854808807 50)
(0.270990997553 3.93854808807 -50)
(0.263796985149 3.93988490105 50)
(0.256597012281 3.94118499756 50)
(0.263796985149 3.93988490105 -50)
(0.256597012281 3.94118499756 -50)
(0.249390006065 3.94245004654 -50)
(0.249390006065 3.94245004654 50)
(0.242175996304 3.94367909431 -50)
(0.242175996304 3.94367909431 50)
(0.234956994653 3.94487094879 -50)
(0.234956994653 3.94487094879 50)
(0.227732002735 3.94602799416 -50)
(0.227732002735 3.94602799416 50)
(0.22050100565 3.94714808464 -50)
(0.22050100565 3.94714808464 50)
(0.213265001774 3.9482319355 50)
(0.213265001774 3.9482319355 -50)
(0.20602299273 3.94928002357 -50)
(0.20602299273 3.94928002357 50)
(0.198776006699 3.95029091835 -50)
(0.198776006699 3.95029091835 50)
(0.191523998976 3.95126700401 50)
(0.191523998976 3.95126700401 -50)
(0.184267997742 3.95220589638 -50)
(0.184267997742 3.95220589638 50)
(0.177006006241 3.95310902596 -50)
(0.177006006241 3.95310902596 50)
(0.169741004705 3.95397591591 -50)
(0.169741004705 3.95397591591 50)
(0.16247099638 3.9548060894 -50)
(0.16247099638 3.9548060894 50)
(0.155196994543 3.95560002327 -50)
(0.155196994543 3.95560002327 50)
(0.147918999195 3.95635700226 -50)
(0.147918999195 3.95635700226 50)
(0.140637993813 3.95707893372 -50)
(0.140637993813 3.95707893372 50)
(0.133352994919 3.95776295662 -50)
(0.133352994919 3.95776295662 50)
(0.126064002514 3.95841193199 -50)
(0.126064002514 3.95841193199 50)
(0.118772998452 3.95902395248 -50)
(0.118772998452 3.95902395248 50)
(0.111478000879 3.9595990181 -50)
(0.111478000879 3.9595990181 50)
(0.1041809991 3.9601380825 -50)
(0.1041809991 3.9601380825 50)
(0.0968810021877 3.96064090729 -50)
(0.0968810021877 3.96064090729 50)
(0.0895790010691 3.96110701561 50)
(0.0895790010691 3.96110701561 -50)
(0.0822739973664 3.96153593063 50)
(0.0822739973664 3.96153593063 -50)
(0.0749680027366 3.96192908287 50)
(0.0749680027366 3.96192908287 -50)
(0.0676589980721 3.96228599548 -50)
(0.0676589980721 3.96228599548 50)
(0.0603489987552 3.96260499954 50)
(0.0603489987552 3.96260499954 -50)
(0.0530380010605 3.96288895607 50)
(0.0530380010605 3.96288895607 -50)
(0.0457249991596 3.96313595772 50)
(0.0457249991596 3.96313595772 -50)
(0.0384109988809 3.96334600449 50)
(0.0384109988809 3.96334600449 -50)
(0.0310949999839 3.96352005005 50)
(0.0310949999839 3.96352005005 -50)
(0.0237799994648 3.96365690231 50)
(0.0237799994648 3.96365690231 -50)
(0.0164630003273 3.96375799179 50)
(0.0164630003273 3.96375799179 -50)
(0.00914600025862 3.96382188797 50)
(0.00914600025862 3.96382188797 -50)
(0.00182899995707 3.96384906769 50)
(0.00182899995707 3.96384906769 -50)
(-0.00548799987882 3.96384000778 50)
(-0.00548799987882 3.96384000778 -50)
(-0.0128049999475 3.963793993 50)
(-0.0128049999475 3.963793993 -50)
(-0.0201210007071 3.96371197701 50)
(-0.0201210007071 3.96371197701 -50)
(-0.0274379998446 3.96359300613 50)
(-0.0274379998446 3.96359300613 -50)
(-0.0347529985011 3.96343803406 50)
(-0.0347529985011 3.96343803406 -50)
(-0.0420680008829 3.9632461071 50)
(-0.0420680008829 3.9632461071 -50)
(-0.0493809990585 3.96301698685 50)
(-0.0493809990585 3.96301698685 -50)
(-0.0566940009594 3.96275210381 50)
(-0.0566940009594 3.96275210381 -50)
(-0.0640050023794 3.96245002747 50)
(-0.0640050023794 3.96245002747 -50)
(-0.0713139995933 3.96211194992 50)
(-0.0713139995933 3.96211194992 -50)
(-0.0786210000515 3.9617369175 50)
(-0.0786210000515 3.9617369175 -50)
(-0.0859270021319 3.96132588387 50)
(-0.0859270021319 3.96132588387 -50)
(-0.0932300016284 3.96087789536 50)
(-0.0932300016284 3.96087789536 -50)
(-0.100530996919 3.96039390564 50)
(-0.100530996919 3.96039390564 -50)
(-0.107830002904 3.95987296104 50)
(-0.107830002904 3.95987296104 -50)
(-0.115125998855 3.95931601524 -50)
(-0.115125998855 3.95931601524 50)
(-0.122418999672 3.95872211456 -50)
(-0.122418999672 3.95872211456 50)
(-0.129709005356 3.95809197426 -50)
(-0.129709005356 3.95809197426 50)
(-0.136996001005 3.95742607117 50)
(-0.136996001005 3.95742607117 -50)
(-0.144279003143 3.9567220211 -50)
(-0.144279003143 3.9567220211 50)
(-0.151558995247 3.95598292351 50)
(-0.151558995247 3.95598292351 -50)
(-0.158833995461 3.95520806313 -50)
(-0.158833995461 3.95520806313 50)
(-0.166106000543 3.95439505577 50)
(-0.166106000543 3.95439505577 -50)
(-0.173373997211 3.95354700089 50)
(-0.173373997211 3.95354700089 -50)
(-0.180638000369 3.95266199112 50)
(-0.180638000369 3.95266199112 -50)
(-0.187895998359 3.95174098015 50)
(-0.187895998359 3.95174098015 -50)
(-0.195151001215 3.95078396797 50)
(-0.195151001215 3.95078396797 -50)
(-0.202399998903 3.94979000092 50)
(-0.202399998903 3.94979000092 -50)
(-0.209644004703 3.94876003265 50)
(-0.209644004703 3.94876003265 -50)
(-0.216883003712 3.94769406319 50)
(-0.216883003712 3.94769406319 -50)
(-0.224116995931 3.94659209251 50)
(-0.224116995931 3.94659209251 -50)
(-0.231344997883 3.94545388222 50)
(-0.231344997883 3.94545388222 -50)
(-0.238566994667 3.94427895546 50)
(-0.238566994667 3.94427895546 -50)
(-0.245783999562 3.94306898117 50)
(-0.245783999562 3.94306898117 -50)
(-0.252994000912 3.941822052 50)
(-0.252994000912 3.941822052 -50)
(-0.260197997093 3.9405400753 50)
(-0.260197997093 3.9405400753 -50)
(-0.267394989729 3.9392209053 50)
(-0.267394989729 3.9392209053 -50)
(-0.274585992098 3.93786597252 50)
(-0.281769007444 3.9364759922 50)
(-0.274585992098 3.93786597252 -50)
(-0.281769007444 3.9364759922 -50)
(-0.288946002722 3.93505001068 -50)
(-0.288946002722 3.93505001068 50)
(-0.296115994453 3.93358707428 -50)
(-0.296115994453 3.93358707428 50)
(-0.303277999163 3.93208909035 -50)
(-0.303277999163 3.93208909035 50)
(-0.310431987047 3.93055510521 -50)
(-0.310431987047 3.93055510521 50)
(-0.317579001188 3.92898607254 -50)
(-0.317579001188 3.92898607254 50)
(-0.324717998505 3.92738103867 -50)
(-0.324717998505 3.92738103867 50)
(-0.331849008799 3.92574000359 -50)
(-0.331849008799 3.92574000359 50)
(-0.338970988989 3.9240629673 -50)
(-0.338970988989 3.9240629673 50)
(-0.346085011959 3.92235088348 -50)
(-0.346085011959 3.92235088348 50)
(-0.353190988302 3.92060303688 -50)
(-0.353190988302 3.92060303688 50)
(-0.36028701067 3.91881990433 -50)
(-0.36028701067 3.91881990433 50)
(-0.36737498641 3.91700100899 50)
(-0.36737498641 3.91700100899 -50)
(-0.374453008175 3.91514706612 -50)
(-0.374453008175 3.91514706612 50)
(-0.381521999836 3.91325807571 -50)
(-0.381521999836 3.91325807571 50)
(-0.388581991196 3.91133308411 -50)
(-0.388581991196 3.91133308411 50)
(-0.395630985498 3.90937304497 -50)
(-0.395630985498 3.90937304497 50)
(-0.402671009302 3.9073779583 -50)
(-0.402671009302 3.9073779583 50)
(-0.409700989723 3.90534806252 -50)
(-0.409700989723 3.90534806252 50)
(-0.41672000289 3.90328192711 50)
(-0.41672000289 3.90328192711 -50)
(-0.423729985952 3.90118193626 50)
(-0.423729985952 3.90118193626 -50)
(-0.430727988482 3.89904594421 50)
(-0.430727988482 3.89904594421 -50)
(-0.437716007233 3.89687609673 50)
(-0.437716007233 3.89687609673 -50)
(-0.444692999125 3.89467000961 50)
(-0.444692999125 3.89467000961 -50)
(-0.451658993959 3.89243006706 50)
(-0.451658993959 3.89243006706 -50)
(-0.458613008261 3.89015507698 50)
(-0.458613008261 3.89015507698 -50)
(-0.465555995703 3.88784503937 50)
(-0.465555995703 3.88784503937 -50)
(-0.472487002611 3.8855009079 50)
(-0.472487002611 3.8855009079 -50)
(-0.479407012463 3.88312196732 -50)
(-0.479407012463 3.88312196732 50)
(-0.486315011978 3.8807079792 -50)
(-0.486315011978 3.8807079792 50)
(-0.493209987879 3.87825989723 -50)
(-0.493209987879 3.87825989723 50)
(-0.500092983246 3.87577700615 -50)
(-0.500092983246 3.87577700615 50)
(-0.506964027882 3.87326097488 -50)
(-0.506964027882 3.87326097488 50)
(-0.5138220191 3.87070894241 -50)
(-0.5138220191 3.87070894241 50)
(-0.520667016506 3.86812400818 -50)
(-0.520667016506 3.86812400818 50)
(-0.5274990201 3.86550402641 -50)
(-0.5274990201 3.86550402641 50)
(-0.534317970276 3.86284995079 -50)
(-0.534317970276 3.86284995079 50)
(-0.541123986244 3.8601629734 -50)
(-0.541123986244 3.8601629734 50)
(-0.547915995121 3.85744094849 -50)
(-0.547915995121 3.85744094849 50)
(-0.554693996906 3.85468506813 -50)
(-0.554693996906 3.85468506813 50)
(-0.5614579916 3.85189604759 -50)
(-0.5614579916 3.85189604759 50)
(-0.568208992481 3.84907197952 -50)
(-0.568208992481 3.84907197952 50)
(-0.574944972992 3.84621500969 -50)
(-0.574944972992 3.84621500969 50)
(-0.581667006016 3.843323946 -50)
(-0.581667006016 3.843323946 50)
(-0.588374972343 3.84039998055 -50)
(-0.588374972343 3.84039998055 50)
(-0.595067024231 3.83744192123 -50)
(-0.595067024231 3.83744192123 50)
(-0.601745009422 3.83445096016 -50)
(-0.601745009422 3.83445096016 50)
(-0.608407974243 3.83142709732 -50)
(-0.608407974243 3.83142709732 50)
(-0.615055024624 3.82836890221 -50)
(-0.615055024624 3.82836890221 50)
(-0.621688008308 3.82527804375 -50)
(-0.621688008308 3.82527804375 50)
(-0.628304004669 3.8221540451 50)
(-0.628304004669 3.8221540451 -50)
(-0.634904980659 3.81899690628 50)
(-0.634904980659 3.81899690628 -50)
(-0.641489982605 3.81580710411 50)
(-0.641489982605 3.81580710411 -50)
(-0.648059010506 3.81258392334 -50)
(-0.648059010506 3.81258392334 50)
(-0.654612004757 3.80932807922 50)
(-0.654612004757 3.80932807922 -50)
(-0.661149024963 3.8060400486 50)
(-0.667668998241 3.80271792412 50)
(-0.661149024963 3.8060400486 -50)
(-0.667668998241 3.80271792412 -50)
(-0.674171984196 3.79936504364 50)
(-0.674171984196 3.79936504364 -50)
(-0.680658996105 3.79597902298 50)
(-0.680658996105 3.79597902298 -50)
(-0.687128007412 3.79256010056 50)
(-0.687128007412 3.79256010056 -50)
(-0.693580985069 3.78910899162 50)
(-0.693580985069 3.78910899162 -50)
(-0.700016021729 3.7856259346 50)
(-0.700016021729 3.7856259346 -50)
(-0.70643299818 3.78211092949 50)
(-0.70643299818 3.78211092949 -50)
(-0.712832987309 3.77856397629 50)
(-0.712832987309 3.77856397629 -50)
(-0.719214975834 3.774985075 50)
(-0.719214975834 3.774985075 -50)
(-0.725579023361 3.7713739872 50)
(-0.725579023361 3.7713739872 -50)
(-0.731925010681 3.76773095131 50)
(-0.731925010681 3.76773095131 -50)
(-0.738252997398 3.76405692101 50)
(-0.738252997398 3.76405692101 -50)
(-0.744561970234 3.76035094261 50)
(-0.744561970234 3.76035094261 -50)
(-0.750853002071 3.75661301613 50)
(-0.750853002071 3.75661301613 -50)
(-0.757124006748 3.7528450489 50)
(-0.757124006748 3.7528450489 -50)
(-0.763377010822 3.7490439415 50)
(-0.763377010822 3.7490439415 -50)
(-0.769611001015 3.74521303177 50)
(-0.769611001015 3.74521303177 -50)
(-0.775825977325 3.74135088921 50)
(-0.775825977325 3.74135088921 -50)
(-0.78202098608 3.73745703697 50)
(-0.78202098608 3.73745703697 -50)
(-0.788196980953 3.73353290558 50)
(-0.788196980953 3.73353290558 -50)
(-0.79435300827 3.72957801819 50)